CM 10moxal.nec
CM 10-meter Moxon Rectangle 7/8" and 3/4" aluminum
CM Can be scaled to any upper HF band
CE
GW 1,7,-1.9111,.26518,10.668,-1.9111,.73914,10.668,.00953
GW 2,1,-1.9111,.73914,10.668,-1.873,.77724,10.668,.0111
GW 3,15,-1.873,.77724,10.668,-.6096,.77724,10.668,.00953
GW 4,15,-.6096,.77724,10.668,.6096,.77724,10.668,.0111
GW 5,15,.6096,.77724,10.668,1.873,.77724,10.668,.00953
GW 6,1,1.873,.77724,10.668,1.9111,.73914,10.668,.0111
GW 7,7,1.9111,.73914,10.668,1.9111,.26518,10.668,.00953
GW 8,9,-1.9111,.10668,10.668,-1.9111,-.5867,10.668,.00953
GW 9,1,-1.9111,-.5867,10.668,-1.873,-.6248,10.668,.0111
GW 10,15,-1.873,-.6248,10.668,-.6096,-.6248,10.668,.00953
GW 11,15,-.6096,-.6248,10.668,.6096,-.6248,10.668,.0111
GW 12,15,.6096,-.6248,10.668,1.873,-.6248,10.668,.00953
GW 13,1,1.873,-.6248,10.668,1.9111,-.5867,10.668,.0111
GW 14,9,1.9111,-.5867,10.668,1.9111,.10668,10.668,.00953
GE 0
LD 5,1,0,0,2.5E+07,1.
LD 5,2,0,0,2.5E+07,1.
LD 5,3,0,0,2.5E+07,1.
LD 5,4,0,0,2.5E+07,1.
LD 5,5,0,0,2.5E+07,1.
LD 5,6,0,0,2.5E+07,1.
LD 5,7,0,0,2.5E+07,1.
LD 5,8,0,0,2.5E+07,1.
LD 5,9,0,0,2.5E+07,1.
LD 5,10,0,0,2.5E+07,1.
LD 5,11,0,0,2.5E+07,1.
LD 5,12,0,0,2.5E+07,1.
LD 5,13,0,0,2.5E+07,1.
LD 5,14,0,0,2.5E+07,1.
FR 0,1,0,0,28.46
GN -1
EX 0,4,8,0,1.414214,0.
RP 0,1,361,1000,90.,0.,0.,1.,0.
EN
