CM 2-element full-size Quad, 10 meters, #14 copper
CM L. B. Cebik, W4RNL
CE 
GW 1 21 -4.334 0 -4.334 4.334 0 -4.334 2.67060367454068E-03
GW 2 21 4.334 0 -4.334 4.334 0 4.334 2.67060367454068E-03
GW 3 21 4.334 0 4.334 -4.334 0 4.334 2.67060367454068E-03
GW 4 21 -4.334 0 4.334 -4.334 0 -4.334 2.67060367454068E-03
GW 5 21 -4.58 -4.31 -4.58 4.58 -4.31 -4.58 2.67060367454068E-03
GW 6 21 4.58 -4.31 -4.58 4.58 -4.31 4.58 2.67060367454068E-03
GW 7 21 4.58 -4.31 4.58 -4.58 -4.31 4.58 2.67060367454068E-03
GW 8 21 -4.58 -4.31 4.58 -4.58 -4.31 -4.58 2.67060367454068E-03
GS 0 0 .3048
GE 0
EX 0 1 11 0 1 0
LD 5 1 1 21 5.8001E7
LD 5 2 1 21 5.8001E7
LD 5 3 1 21 5.8001E7
LD 5 4 1 21 5.8001E7
LD 5 5 1 21 5.8001E7
LD 5 6 1 21 5.8001E7
LD 5 7 1 21 5.8001E7
LD 5 8 1 21 5.8001E7
FR 0 1 0 0 28.5 1
RP 0 1 360 1000 90 0 1 1
EN

