CM 2-element diamond-shape small quad, 10 meters, #14 copper
CM L. B. Cebik, W4RNL
CE 
GW 1 21 .3 0 -4.5 4.5 0 -.125 2.67060367454068E-03
GW 2 21 4.5 0 -.125 .86 0 -.125 2.67060367454068E-03
GW 3 1 .86 0 -.125 .86 0 .125 2.67060367454068E-03
GW 4 21 .86 0 .125 4.5 0 .125 2.67060367454068E-03
GW 5 21 4.5 0 .125 0 0 4.5 2.67060367454068E-03
GW 6 21 0 0 4.5 -4.5 0 .125 2.67060367454068E-03
GW 7 21 -4.5 0 .125 -.86 0 .125 2.67060367454068E-03
GW 8 1 -.86 0 .125 -.86 0 -.125 2.67060367454068E-03
GW 9 21 -.86 0 -.125 -4.5 0 -.125 2.67060367454068E-03
GW 10 21 -4.5 0 -.125 -.3 0 -4.5 2.67060367454068E-03
GW 11 3 -.3 0 -4.5 .3 0 -4.5 2.67060367454068E-03
GW 12 21 0 -4.31 -4.5 4.5 -4.31 -.125 2.67060367454068E-03
GW 13 21 4.5 -4.31 -.125 .43 -4.31 -.125 2.67060367454068E-03
GW 14 1 .43 -4.31 -.125 .43 -4.31 .125 2.67060367454068E-03
GW 15 21 .43 -4.31 .125 4.5 -4.31 .125 2.67060367454068E-03
GW 16 21 4.5 -4.31 .125 0 -4.31 4.5 2.67060367454068E-03
GW 17 21 0 -4.31 4.5 -4.5 -4.31 .125 2.67060367454068E-03
GW 18 21 -4.5 -4.31 .125 -.43 -4.31 .125 2.67060367454068E-03
GW 19 1 -.43 -4.31 .125 -.43 -4.31 -.125 2.67060367454068E-03
GW 20 21 -.43 -4.31 -.125 -4.5 -4.31 -.125 2.67060367454068E-03
GW 21 21 -4.5 -4.31 -.125 0 -4.31 -4.5 2.67060367454068E-03
GS 0 0 .3048
GE 0
EX 0 11 2 0 1 0
LD 5 1 1 21 5.8001E7
LD 5 2 1 21 5.8001E7
LD 5 3 1 1 5.8001E7
LD 5 4 1 21 5.8001E7
LD 5 5 1 21 5.8001E7
LD 5 6 1 21 5.8001E7
LD 5 7 1 21 5.8001E7
LD 5 8 1 1 5.8001E7
LD 5 9 1 21 5.8001E7
LD 5 10 1 21 5.8001E7
LD 5 11 1 3 5.8001E7
LD 5 12 1 21 5.8001E7
LD 5 13 1 21 5.8001E7
LD 5 14 1 1 5.8001E7
LD 5 15 1 21 5.8001E7
LD 5 16 1 21 5.8001E7
LD 5 17 1 21 5.8001E7
LD 5 18 1 21 5.8001E7
LD 5 19 1 1 5.8001E7
LD 5 20 1 21 5.8001E7
LD 5 21 1 21 5.8001E7
FR 0 1 0 0 28.5 1
RP 0 1 360 1000 90 0 1 1
EN

