CM 2-element square small quad, 10 meters, #14 copper
CM L. B. Cebik, W4RNL
CE 
GW 1 21 -3.46 0 -3.46 3.46 0 -3.46 2.67060367454068E-03
GW 2 10 3.46 0 -3.46 3.46 0 -.125 2.67060367454068E-03
GW 3 21 3.46 0 -.125 .84 0 -.125 2.67060367454068E-03
GW 4 1 .84 0 -.125 .84 0 .125 2.67060367454068E-03
GW 5 21 .84 0 .125 3.46 0 .125 2.67060367454068E-03
GW 6 10 3.46 0 .125 3.46 0 3.46 2.67060367454068E-03
GW 7 21 3.46 0 3.46 -3.46 0 3.46 2.67060367454068E-03
GW 8 10 -3.46 0 3.46 -3.46 0 .125 2.67060367454068E-03
GW 9 21 -3.46 0 .125 -.84 0 .125 2.67060367454068E-03
GW 10 1 -.84 0 .125 -.84 0 -.125 2.67060367454068E-03
GW 11 21 -.84 0 -.125 -3.46 0 -.125 2.67060367454068E-03
GW 12 10 -3.46 0 -.125 -3.46 0 -3.46 2.67060367454068E-03
GW 13 21 -3.46 -4.31 -3.46 3.46 -4.31 -3.46 2.67060367454068E-03
GW 14 10 3.46 -4.31 -3.46 3.46 -4.31 -.125 2.67060367454068E-03
GW 15 21 3.46 -4.31 -.125 .48 -4.31 -.125 2.67060367454068E-03
GW 16 1 .48 -4.31 -.125 .48 -4.31 .125 2.67060367454068E-03
GW 17 21 .48 -4.31 .125 3.46 -4.31 .125 2.67060367454068E-03
GW 18 10 3.46 -4.31 .125 3.46 -4.31 3.46 2.67060367454068E-03
GW 19 21 3.46 -4.31 3.46 -3.46 -4.31 3.46 2.67060367454068E-03
GW 20 10 -3.46 -4.31 3.46 -3.46 -4.31 .125 2.67060367454068E-03
GW 21 21 -3.46 -4.31 .125 -.48 -4.31 .125 2.67060367454068E-03
GW 22 1 -.48 -4.31 .125 -.48 -4.31 -.125 2.67060367454068E-03
GW 23 21 -.48 -4.31 -.125 -3.46 -4.31 -.125 2.67060367454068E-03
GW 24 10 -3.46 -4.31 -.125 -3.46 -4.31 -3.46 2.67060367454068E-03
GS 0 0 .3048
GE 0
EX 0 1 11 0 1 0
LD 5 1 1 21 5.8001E7
LD 5 2 1 10 5.8001E7
LD 5 3 1 21 5.8001E7
LD 5 4 1 1 5.8001E7
LD 5 5 1 21 5.8001E7
LD 5 6 1 10 5.8001E7
LD 5 7 1 21 5.8001E7
LD 5 8 1 10 5.8001E7
LD 5 9 1 21 5.8001E7
LD 5 10 1 1 5.8001E7
LD 5 11 1 21 5.8001E7
LD 5 12 1 10 5.8001E7
LD 5 13 1 21 5.8001E7
LD 5 14 1 10 5.8001E7
LD 5 15 1 21 5.8001E7
LD 5 16 1 1 5.8001E7
LD 5 17 1 21 5.8001E7
LD 5 18 1 10 5.8001E7
LD 5 19 1 21 5.8001E7
LD 5 20 1 10 5.8001E7
LD 5 21 1 21 5.8001E7
LD 5 22 1 1 5.8001E7
LD 5 23 1 21 5.8001E7
LD 5 24 1 10 5.8001E7
FR 0 1 0 0 28.5 1
RP 0 1 360 1000 90 0 1 1
EN

