CM 3-element Yagi, 20 meters, 1" Al
CM L. B. Cebik, W4RNL
CE 
GW 1 41 -16.617 -.817 70 16.617 -.817 70 .0415
GW 2 41 -17.28 -11.272 70 17.28 -11.272 70 .0415
GW 3 41 -15.525 11.272 70 15.525 11.272 70 .0415
GS 0 0 .3048
GE 1
GN 0 0 0 0 13 .005
EX 0 1 21 0 1 0
LD 5 1 1 41 2.4938E7
LD 5 2 1 41 2.4938E7
LD 5 3 1 41 2.4938E7
FR 0 1 0 0 14.175 1
RP 0 1 360 1000 76 0 1 1
FR 0 1 0 0 14.175 1
RP 0 181 1 1000 -90 90 1 1
EN

