CM 80hsbeam.nec
CM 80m Half-Square Parasitic beam                   
CE
GW 1,11,-21.11,0.,9.43751,-21.11,0.,31.0444,.00103
GW 2,22,-21.11,0.,31.0444,21.1102,0.,31.0444,.00103
GW 3,11,21.1102,0.,31.0444,21.1102,0.,9.43751,.00103
GW 4,11,-21.11,-12.678,9.43752,-21.11,-12.678,31.0444,.00103
GW 5,22,-21.11,-12.678,31.0444,21.1102,-12.678,31.0444,.00103
GW 6,11,21.1102,-12.678,31.0444,21.1102,-12.678,9.43752,.00103
GE 1
LD 4,4,11,11,0.,50.
LD 5,1,0,0,5.7471E+7,1.
LD 5,2,0,0,5.7471E+7,1.
LD 5,3,0,0,5.7471E+7,1.
LD 5,4,0,0,5.7471E+7,1.
LD 5,5,0,0,5.7471E+7,1.
LD 5,6,0,0,5.7471E+7,1.
FR 0,1,0,0,3.51
GN 2,0,0,0,13.,.005
EX 0,1,11,0,.707107,0.
EX 0,2,1,0,.707107,0.
RP 0,1,361,1000,74.,0.,0.,1.,0.
EN
