CM 80rtbeam.nec
CM 80-meter side-fed rectangle parasitical beam            
CE
GW 1,35,-17.282,0.,18.288,17.2821,0.,18.288,.00103
GW 2,11,17.2821,0.,18.288,17.2821,0.,27.432,.00103
GW 3,35,17.2821,0.,27.432,-17.282,0.,27.432,.00103
GW 4,11,-17.282,0.,27.432,-17.282,0.,18.288,.00103
GW 5,35,-17.282,-15.24,18.288,17.2821,-15.24,18.288,.00103
GW 6,11,17.2821,-15.24,18.288,17.2821,-15.24,27.432,.00103
GW 7,35,17.2821,-15.24,27.432,-17.282,-15.24,27.432,.00103
GW 8,11,-17.282,-15.24,27.432,-17.282,-15.24,18.288,.00103
GE 1
LD 4,6,6,6,0.,20.
LD 5,1,0,0,5.7471E+7,1.
LD 5,2,0,0,5.7471E+7,1.
LD 5,3,0,0,5.7471E+7,1.
LD 5,4,0,0,5.7471E+7,1.
LD 5,5,0,0,5.7471E+7,1.
LD 5,6,0,0,5.7471E+7,1.
LD 5,7,0,0,5.7471E+7,1.
LD 5,8,0,0,5.7471E+7,1.
FR 0,1,0,0,3.51
GN 2,0,0,0,13.,.005
EX 0,2,6,0,1.414214,0.
RP 0,1,361,1000,73.,0.,0.,1.,0.
EN
