CM NEC-WIN Example
CM UHF Bowtie Antenna in Free Space
CM Frequency Range: 500-600 MHZ
CM
CE
GW 1 6 0 -.1 .025 0 0 0 .001
GW 2 6 0 -.1 -.025 0 0 0 .001
GW 3 6 0 .1 .025 0 0 0 .001
GW 4 6 0 .1 -.025 0 0 0 .001
GS 0 0 1
GE 0
EX 0 1 6 0 -1 0
EX 0 2 6 0 -1 0
EX 0 3 6 0 1 0
EX 0 4 6 0 1 0
FR 0 10 0 0 550 5
RP 0 181 1 1000 -90 0 1 1
RP 0 1 360 1000 90 0 1 1
EN
