CM Capacity-Hat Loaded Dipole, 10 meters
CM L. B. Cebik, W4RNL
CE 
GW 1 11 -6 0 20 6 0 20 3.36778215223097E-03
GW 2 3 -6 0 20 -6 0 20.76 3.36778215223097E-03
GW 3 3 -6 0 20 -6 0 19.24 3.36778215223097E-03
GW 4 3 -6 0 20 -6 .76 20 3.36778215223097E-03
GW 5 3 -6 0 20 -6 -.76 20 3.36778215223097E-03
GW 6 3 6 0 20 6 0 20.76 3.36778215223097E-03
GW 7 3 6 0 20 6 0 19.24 3.36778215223097E-03
GW 8 3 6 0 20 6 .76 20 3.36778215223097E-03
GW 9 3 6 0 20 6 -.76 20 3.36778215223097E-03
GS 0 0 .3048
GE 0
EX 0 1 6 0 1 0
LD 5 1 1 11 5.8001E7
LD 5 2 1 3 5.8001E7
LD 5 3 1 3 5.8001E7
LD 5 4 1 3 5.8001E7
LD 5 5 1 3 5.8001E7
LD 5 6 1 3 5.8001E7
LD 5 7 1 3 5.8001E7
LD 5 8 1 3 5.8001E7
LD 5 9 1 3 5.8001E7
FR 0 1 0 0 28.5 1
RP 0 1 360 1000 90 0 1 1
FR 0 1 0 0 28.5 1
RP 0 181 1 1000 -90 90 1 1
EN

