CM Right-angle Delta, bottom-fed, 40 meters, #14 copper 
CM L. B. Cebik, W4RNL
CE 
GW 1 33 -29.2 0 20.8 0 0 50 2.67060367454068E-03
GW 2 33 0 0 50 29.2 0 20.8 2.67060367454068E-03
GW 3 47 29.2 0 20.8 -29.2 0 20.8 2.67060367454068E-03
GS 0 0 .3048
GE 1
GN 0 0 0 0 13 .005
EX 0 3 24 0 1 0
LD 5 1 1 33 5.8001E7
LD 5 2 1 33 5.8001E7
LD 5 3 1 47 5.8001E7
FR 0 1 0 0 7.15 1
RP 0 1 360 1000 45 0 1 1
FR 0 1 0 0 7.15 1
RP 0 181 1 1000 -90 90 1 1
EN

