CM Linear-loaded dipole: triangle; 10 meters; meters
CM L. B. Cebik, W4RNL
CE
GW 1,60,-2.0043,0.,10.668,-.0304,0.,10.668,.00103
GW 2,2,-.0304,0.,10.668,-.0304,.01524,10.6984,.00103
GW 3,20,-.0304,.01524,10.6984,-.5638,.01524,10.6984,.00103
GW 4,2,-.5638,.01524,10.6984,-.5638,-.0152,10.6984,.00103
GW 5,41,-.5638,-.0152,10.6984,.56388,-.0152,10.6984,.00103
GW 6,2,.56388,-.0152,10.6984,.56388,.01524,10.6984,.00103
GW 7,20,.56388,.01524,10.6984,.03048,.01524,10.6984,.00103
GW 8,2,.03048,.01524,10.6984,.03048,0.,10.668,.00103
GW 9,60,.03048,0.,10.668,2.00436,0.,10.668,.00103
GE 1
FR 0,1,0,0,28.5
GN 2,0,0,0,13.,.005
EX 0,5,21,0,1.414214,0.
RP 0,1,361,1000,76.,0.,0.,1.,0.
EN
