CM Linear loaded dipole: vertical; 10 meters, meters
CM L. B. Cebik, W4RNL
CE
GW 1,60,-2.0238,0.,10.668,-.0304,0.,10.668,.00103
GW 2,2,-.0304,0.,10.668,-.0304,0.,10.7442,.00103
GW 3,13,-.0304,0.,10.7442,-.4572,0.,10.7442,.00103
GW 4,2,-.4572,0.,10.7442,-.4572,0.,10.8204,.00103
GW 5,27,-.4572,0.,10.8204,.4572,0.,10.8204,.00103
GW 6,2,.4572,0.,10.8204,.4572,0.,10.7442,.00103
GW 7,13,.4572,0.,10.7442,.03048,0.,10.7442,.00103
GW 8,2,.03048,0.,10.7442,.03048,0.,10.668,.00103
GW 9,60,.03048,0.,10.668,2.02387,0.,10.668,.00103
GE 1
LD 5,1,0,0,5.7471E+7,1.
LD 5,2,0,0,5.7471E+7,1.
LD 5,3,0,0,5.7471E+7,1.
LD 5,4,0,0,5.7471E+7,1.
LD 5,5,0,0,5.7471E+7,1.
LD 5,6,0,0,5.7471E+7,1.
LD 5,7,0,0,5.7471E+7,1.
LD 5,8,0,0,5.7471E+7,1.
LD 5,9,0,0,5.7471E+7,1.
FR 0,1,0,0,28.5
GN 2,0,0,0,13.,.005
EX 0,5,14,0,1.414214,0.
RP 0,1,361,1000,76.,0.,0.,1.,0.
EN
