CM Extended Double Zepp, 12 meters, #14 copper
CM L. B. Cebik, W4RNL
CE 
GW 1 31 -25.25 0 40 25.25 0 40 2.67060367454068E-03
GS 0 0 .3048
GE 1
GN 0 0 0 0 13 .005
EX 0 1 16 0 1 0
LD 5 1 1 31 5.8001E7
FR 0 1 0 0 24.95 1
RP 0 1 360 1000 76 0 1 1
FR 0 1 0 0 24.95 1
RP 0 181 1 1000 -90 90 1 1
EN

