CM .22 wl fan Yagi, 45-deg slope
CM 0.22 wl hor. & vert.
CM 10 meters
CE
GW 1,9,-1.1742,-1.8547,0.,-1.1742,-1.8547,1.17423,.000814
GW 2,27,-1.1742,-1.8547,1.17423,-.0639,-1.8547,0.,.000814
GW 3,9,-1.1742,-1.8547,0.,-1.1742,-1.8547,-1.1742,.000814
GW 4,27,-1.1742,-1.8547,-1.1742,-.0639,-1.8547,0.,.000814
GW 5,3,-.0639,-1.8547,0.,.06399,-1.8547,0.,.000814
GW 6,27,.06399,-1.8547,0.,1.17423,-1.8547,1.17423,.000814
GW 7,9,1.17423,-1.8547,1.17423,1.17423,-1.8547,0.,.000814
GW 8,27,.06399,-1.8547,0.,1.17423,-1.8547,-1.1742,.000814
GW 9,9,1.17423,-1.8547,-1.1742,1.17423,-1.8547,0.,.000814
GW 10,9,-1.0972,0.,0.,-1.0972,0.,1.09728,.000814
GW 11,27,-1.0972,0.,1.09728,-.0618,0.,0.,.000814
GW 12,9,-1.0972,0.,0.,-1.0972,0.,-1.0972,.000814
GW 13,27,-1.0972,0.,-1.0972,-.0618,0.,0.,.000814
GW 14,3,-.0618,0.,0.,.06182,0.,0.,.000814
GW 15,27,.06182,0.,0.,1.09728,0.,1.09728,.000814
GW 16,9,1.09728,0.,1.09728,1.09728,0.,0.,.000814
GW 17,27,.06182,0.,0.,1.09728,0.,-1.0972,.000814
GW 18,9,1.09728,0.,-1.0972,1.09728,0.,0.,.000814
GE 0
LD 5,1,0,0,5.7471E+7,1.
LD 5,2,0,0,5.7471E+7,1.
LD 5,3,0,0,5.7471E+7,1.
LD 5,4,0,0,5.7471E+7,1.
LD 5,5,0,0,5.7471E+7,1.
LD 5,6,0,0,5.7471E+7,1.
LD 5,7,0,0,5.7471E+7,1.
LD 5,8,0,0,5.7471E+7,1.
LD 5,9,0,0,5.7471E+7,1.
LD 5,10,0,0,5.7471E+7,1.
LD 5,11,0,0,5.7471E+7,1.
LD 5,12,0,0,5.7471E+7,1.
LD 5,13,0,0,5.7471E+7,1.
LD 5,14,0,0,5.7471E+7,1.
LD 5,15,0,0,5.7471E+7,1.
LD 5,16,0,0,5.7471E+7,1.
LD 5,17,0,0,5.7471E+7,1.
LD 5,18,0,0,5.7471E+7,1.
FR 0,1,0,0,28.5
GN -1
EX 0,14,2,0,1.414214,0.
RP 0,1,361,1000,90.,0.,0.,1.,0.
EN
