CM 0.22 wl long fan dipole, 10 meters, #14 copper
CM L. B. Cebik, W4RNL
CE 
GW 1 9 -3.8 0 35 -3.8 0 38.8 2.67060367454068E-03
GW 2 27 -3.8 0 38.8 -.2 0 35 2.67060367454068E-03
GW 3 9 -3.8 0 35 -3.8 0 31.2 2.67060367454068E-03
GW 4 27 -3.8 0 31.2 -.2 0 35 2.67060367454068E-03
GW 5 3 -.2 0 35 .2 0 35 2.67060367454068E-03
GW 6 27 .2 0 35 3.8 0 38.8 2.67060367454068E-03
GW 7 9 3.8 0 38.8 3.8 0 35 2.67060367454068E-03
GW 8 27 .2 0 35 3.8 0 31.2 2.67060367454068E-03
GW 9 9 3.8 0 31.2 3.8 0 35 2.67060367454068E-03
GS 0 0 .3048
GE 1
GN 0 0 0 0 13 .005
EX 0 5 2 0 1 0
LD 5 1 1 9 5.8001E7
LD 5 2 1 27 5.8001E7
LD 5 3 1 9 5.8001E7
LD 5 4 1 27 5.8001E7
LD 5 5 1 3 5.8001E7
LD 5 6 1 27 5.8001E7
LD 5 7 1 9 5.8001E7
LD 5 8 1 27 5.8001E7
LD 5 9 1 9 5.8001E7
FR 0 1 0 0 28.5 1
RP 0 1 360 1000 76 0 1 1
FR 0 1 0 0 28.5 1
RP 0 181 1 1000 -90 90 1 1
EN

