CM fdsp 8.08 ref dipole .021'; xlate to meters
CM L. B. Cebik, W4RNL    
CE
GW 1,91,-2.5359,0.,10.668,2.53594,0.,10.668,.000512
GW 2,1,2.53594,0.,10.668,2.53594,0.,10.6744,.000512
GW 3,91,2.53594,0.,10.6744,-2.5359,0.,10.6744,.000512
GW 4,1,-2.5359,0.,10.6744,-2.5359,0.,10.668,.000512
GE 1
LD 5,1,0,0,5.7471E+7,1.
LD 5,2,0,0,5.7471E+7,1.
LD 5,3,0,0,5.7471E+7,1.
LD 5,4,0,0,5.7471E+7,1.
FR 0,1,0,0,28.5
GN 2,0,0,0,13.,.005
EX 0,1,46,0,1.414214,0.
RP 0,1,361,1000,76.,0.,0.,1.,0.
EN
