CM Half Square:  40 meters, #14 copper wire
CM L. B. Cebik, W4RNL
CE 
GW 1 17 -34.6 0 5 -34.6 0 40 2.67060367454068E-03
GW 2 35 -34.6 0 40 34.6 0 40 2.67060367454068E-03
GW 3 17 34.6 0 40 34.6 0 5 2.67060367454068E-03
GS 0 0 .3048
GE 1
GN 2 0 0 0 13 .005 0 0 0 0
EX 0 1 17 0 1 0
LD 5 1 1 17 5.8001E7
LD 5 2 1 35 5.8001E7
LD 5 3 1 17 5.8001E7
FR 0 1 0 0 7.15 1
RP 0 1 360 1000 69 0 1 1
FR 0 1 0 0 7.15 1
RP 0 181 1 1000 -90 90 1 1
EN

