CM med. loop 40m
CM 1/2 wl double loop, capacity gap
CM 18' per side
CE
GW 1,17,-2.7584,.0762,1.524,-2.7584,.0762,7.0104,.00103
GW 2,8,-2.7584,.0762,7.0104,-.1524,0.,7.0104,.00103
GW 3,8,.1524,0.,7.0104,2.75844,.0762,7.0104,.00103
GW 4,17,2.75844,.0762,7.0104,2.75844,.0762,1.524,.00103
GW 5,17,2.75844,.0762,1.524,-2.7584,.0762,1.524,.00103
GW 6,17,-2.7584,-.0762,1.524,-2.7584,-.0762,7.0104,.00103
GW 7,8,-2.7584,-.0762,7.0104,-.1524,0.,7.0104,.00103
GW 8,8,.1524,0.,7.0104,2.75844,-.0762,7.0104,.00103
GW 9,17,2.75844,-.0762,7.0104,2.75844,-.0762,1.524,.00103
GW 10,17,2.75844,-.0762,1.524,-2.7584,-.0762,1.524,.00103
GE 1
LD 5,1,0,0,5.7471E+7,1.
LD 5,2,0,0,5.7471E+7,1.
LD 5,3,0,0,5.7471E+7,1.
LD 5,4,0,0,5.7471E+7,1.
LD 5,5,0,0,5.7471E+7,1.
LD 5,6,0,0,5.7471E+7,1.
LD 5,7,0,0,5.7471E+7,1.
LD 5,8,0,0,5.7471E+7,1.
LD 5,9,0,0,5.7471E+7,1.
LD 5,10,0,0,5.7471E+7,1.
FR 0,1,0,0,7.15
GN 2,0,0,0,13.,.005
EX 0,5,9,0,1.414214,0.
RP 0,181,1,1000,90.,0.,-1.,0.,0.
EN
