CM NEC-WIN Example
CM 5 Element LPDA in Free Space Tau = 0.90  Sigma = 0.16
CM Frequency Range 300-400 MHz
CM
CE
GW 1 9 0 -.27 0 0 .27 0 .000406
GW 2 7 .1728 -.243 0 .1728 .243 0 .000322
GW 3 5 .32832 -.2187 0 .32832 .2187 0 .000322
GW 4 5 .468288 -.19683 0 .468288 .19683 0 .000322
GW 5 3 .5942592 -.177147 0 .5942592 .177147 0 .000322
GS 0 0 1
GE 0
EX 0 5 2 0 1 0
TL 1 5 2 4 -50 0 0 0 0 0
TL 2 4 3 3 -50 0 0 0 0 0
TL 3 3 4 3 -50 0 0 0 0 0
TL 4 3 5 2 -50 0 0 0 0 0
FR 0 1 0 0 300 1
RP 0 181 1 1000 -90 0 1 1
RP 0 1 360 1000 90 0 1 1
EN
