CE     LPYAGI
GW 1,31, 0,-280.5,0, 0,280.5,0, .5
GW 2,25, 83.8,-226.94,0, 83.8,226.94,0, .4375
GW 3,21, 151.13,-185.1,0, 151.13,185.1,0, .5
GW 4,17, 205.38,-148.39,0, 205.38,148.39,0, .375
GW 5,13, 248.88,-121.44,0, 248.88,121.44,0, .4375
GW 6,11, 283.88,-97.75,0, 283.88,97.75,0, .4375
GW 7,9, 312.75,-78.93,0, 312.75,78.93,0, .4375
GW 8,10, 356.75,-91.09,0, 356.75,91.09,0, .354
GM 0,0, 0,0,0, -178,0,756, 001.009
GW 10,40, 0,0,0, 0,0,960, 18
GW 20,32, -144,-384,936, -144,384,936, 2
GM 1,1, 0,0,0, 288,0,0, 020.021
GW 30,12, 144,0,936, -144,0,936, 2
GS 2
GE 1
