CM Moxon Rectangle:  20 meters Free Space #14 copper wire
CM L. B. Cebik, W4RNL
CE 
GW 1 7 -12.5 1.43 35 -12.5 5.43 35 2.67060367454068E-03
GW 2 45 -12.5 5.43 35 12.5 5.43 35 2.67060367454068E-03
GW 3 7 12.5 5.43 35 12.5 1.43 35 2.67060367454068E-03
GW 4 9 -12.5 .71 35 -12.5 -4.14 35 2.67060367454068E-03
GW 5 45 -12.5 -4.14 35 12.5 -4.14 35 2.67060367454068E-03
GW 6 9 12.5 -4.14 35 12.5 .71 35 2.67060367454068E-03
GS 0 0 .3048
GE 1
GN 0 0 0 0 13 .005
EX 0 2 23 0 1 0
LD 5 1 1 7 5.8001E7
LD 5 2 1 45 5.8001E7
LD 5 3 1 7 5.8001E7
LD 5 4 1 9 5.8001E7
LD 5 5 1 45 5.8001E7
LD 5 6 1 9 5.8001E7
FR 0 1 0 0 14.175 1
RP 0 1 360 1000 65 0 1 1
FR 0 1 0 0 14.175 1
RP 0 181 1 1000 -90 90 1 1
EN

