CM dp: 14/21/28 open sleeve, meters
CM check freq: 21.2, 28.5 MHz
CM L. B. Cebik, W4RNL      
CE
GW 1,41,-5.1206,0.,10.668,5.12064,0.,10.668,.0127
GW 2,41,-3.3436,.21336,10.668,3.34366,.21336,10.668,.0127
GW 3,41,-2.5075,-.1889,10.668,2.50759,-.1889,10.668,.0127
GE 0
LD 5,1,0,0,2.5E+07,1.
LD 5,2,0,0,2.5E+07,1.
LD 5,3,0,0,2.5E+07,1.
FR 0,1,0,0,14.175
GN -1
EX 0,1,21,0,1.414214,0.
RP 0,1,361,1000,90.,0.,0.,1.,0.
EN
