CM 5-band quads optimized, 10 meter test
CM Change frequency and feedpoint for other bands
CM L. B. Cebik, W4RNL      
CE
GW 1,7,-1.3167,.65684,13.9232,1.31674,.65684,13.9232,.000814
GW 2,7,1.31674,.65684,13.9232,1.31674,.65684,16.5567,.000814
GW 3,7,1.31674,.65684,16.5567,-1.3167,.65684,16.5567,.000814
GW 4,7,-1.3167,.65684,16.5567,-1.3167,.65684,13.9232,.000814
GW 5,7,-1.402,-.6568,13.8379,1.40208,-.6568,13.8379,.000814
GW 6,7,1.40208,-.6568,13.8379,1.40208,-.6568,16.642,.000814
GW 7,7,1.40208,-.6568,16.642,-1.402,-.6568,16.642,.000814
GW 8,7,-1.402,-.6568,16.642,-1.402,-.6568,13.8379,.000814
GW 9,11,-1.7724,.88301,13.4675,1.77241,.88301,13.4675,.000814
GW 10,11,1.77241,.88301,13.4675,1.77241,.88301,17.0124,.000814
GW 11,11,1.77241,.88301,17.0124,-1.7724,.88301,17.0124,.000814
GW 12,11,-1.7724,.88301,17.0124,-1.7724,.88301,13.4675,.000814
GW 13,11,-1.8379,-.883,13.402,1.83794,-.883,13.402,.000814
GW 14,11,1.83794,-.883,13.402,1.83794,-.883,17.0779,.000814
GW 15,11,1.83794,-.883,17.0779,-1.8379,-.883,17.0779,.000814
GW 16,11,-1.8379,-.883,17.0779,-1.8379,-.883,13.402,.000814
GW 17,15,-2.667,1.321,12.573,2.667,1.321,12.573,.000814
GW 18,15,2.667,1.321,12.573,2.667,1.321,17.907,.000814
GW 19,15,2.667,1.321,17.907,-2.667,1.321,17.907,.000814
GW 20,15,-2.667,1.321,17.907,-2.667,1.321,12.573,.000814
GW 21,15,-2.7523,-1.321,12.4876,2.75234,-1.321,12.4876,.000814
GW 22,15,2.75234,-1.321,12.4876,2.75234,-1.321,17.9923,.000814
GW 23,15,2.75234,-1.321,17.9923,-2.7523,-1.321,17.9923,.000814
GW 24,15,-2.7523,-1.321,17.9923,-2.7523,-1.321,12.4876,.000814
GW 25,9,-1.5087,.75133,13.7312,1.50876,.75133,13.7312,.000814
GW 26,9,1.50876,.75133,13.7312,1.50876,.75133,16.7487,.000814
GW 27,9,1.50876,.75133,16.7487,-1.5087,.75133,16.7487,.000814
GW 28,9,-1.5087,.75133,16.7487,-1.5087,.75133,13.7312,.000814
GW 29,9,-1.5544,-.7513,13.6855,1.55448,-.7513,13.6855,.000814
GW 30,9,1.55448,-.7513,13.6855,1.55448,-.7513,16.7944,.000814
GW 31,9,1.55448,-.7513,16.7944,-1.5544,-.7513,16.7944,.000814
GW 32,9,-1.5544,-.7513,16.7944,-1.5544,-.7513,13.6855,.000814
GW 33,13,-2.0817,1.03419,13.1582,2.08178,1.03419,13.1582,.000814
GW 34,13,2.08178,1.03419,13.1582,2.08178,1.03419,17.3217,.000814
GW 35,13,2.08178,1.03419,17.3217,-2.0817,1.03419,17.3217,.000814
GW 36,13,-2.0817,1.03419,17.3217,-2.0817,1.03419,13.1582,.000814
GW 37,13,-2.1427,-1.0341,13.0972,2.14274,-1.0341,13.0972,.000814
GW 38,13,2.14274,-1.0341,13.0972,2.14274,-1.0341,17.3827,.000814
GW 39,13,2.14274,-1.0341,17.3827,-2.1427,-1.0341,17.3827,.000814
GW 40,13,-2.1427,-1.0341,17.3827,-2.1427,-1.0341,13.0972,.000814
GE 1
LD 5,1,0,0,5.7471E+7,1.
LD 5,2,0,0,5.7471E+7,1.
LD 5,3,0,0,5.7471E+7,1.
LD 5,4,0,0,5.7471E+7,1.
LD 5,5,0,0,5.7471E+7,1.
LD 5,6,0,0,5.7471E+7,1.
LD 5,7,0,0,5.7471E+7,1.
LD 5,8,0,0,5.7471E+7,1.
LD 5,9,0,0,5.7471E+7,1.
LD 5,10,0,0,5.7471E+7,1.
LD 5,11,0,0,5.7471E+7,1.
LD 5,12,0,0,5.7471E+7,1.
LD 5,13,0,0,5.7471E+7,1.
LD 5,14,0,0,5.7471E+7,1.
LD 5,15,0,0,5.7471E+7,1.
LD 5,16,0,0,5.7471E+7,1.
LD 5,17,0,0,5.7471E+7,1.
LD 5,18,0,0,5.7471E+7,1.
LD 5,19,0,0,5.7471E+7,1.
LD 5,20,0,0,5.7471E+7,1.
LD 5,21,0,0,5.7471E+7,1.
LD 5,22,0,0,5.7471E+7,1.
LD 5,23,0,0,5.7471E+7,1.
LD 5,24,0,0,5.7471E+7,1.
LD 5,25,0,0,5.7471E+7,1.
LD 5,26,0,0,5.7471E+7,1.
LD 5,27,0,0,5.7471E+7,1.
LD 5,28,0,0,5.7471E+7,1.
LD 5,29,0,0,5.7471E+7,1.
LD 5,30,0,0,5.7471E+7,1.
LD 5,31,0,0,5.7471E+7,1.
LD 5,32,0,0,5.7471E+7,1.
LD 5,33,0,0,5.7471E+7,1.
LD 5,34,0,0,5.7471E+7,1.
LD 5,35,0,0,5.7471E+7,1.
LD 5,36,0,0,5.7471E+7,1.
LD 5,37,0,0,5.7471E+7,1.
LD 5,38,0,0,5.7471E+7,1.
LD 5,39,0,0,5.7471E+7,1.
LD 5,40,0,0,5.7471E+7,1.
FR 0,1,0,0,28.5
GN 2,0,0,0,13.,.005
EX 0,1,4,0,1.414214,0.
RP 0,1,361,1000,80.,0.,0.,1.,0.
EN
