CM Rectangle, side fed, 40 meters, #14 copper 
CM L. B. Cebik, W4RNL
CE 
GW 1 11 -25.75 0 20 -25.75 0 40 2.67060367454068E-03
GW 2 25 -25.75 0 40 25.75 0 40 2.67060367454068E-03
GW 3 11 25.75 0 40 25.75 0 20 2.67060367454068E-03
GW 4 25 25.75 0 20 -25.75 0 20 2.67060367454068E-03
GS 0 0 .3048
GE 1
GN 0 0 0 0 13 .005
EX 0 3 6 0 1 0
LD 5 1 1 11 5.8001E7
LD 5 2 1 25 5.8001E7
LD 5 3 1 11 5.8001E7
LD 5 4 1 25 5.8001E7
FR 0 1 0 0 7.15 1
RP 0 1 360 1000 70 0 1 1
FR 0 1 0 0 7.15 1
RP 0 181 1 1000 -90 90 1 1
EN

