CM NEC-WIN Example
CM Inverted-V antenna over real ground Er=15, Sigma = 0.01 S/m
CM Frequency: 5 MHz
CE 
GW 1 10 0 -10.6 .1 0 0 10.7 .01
GW 2 10 0 10.6 .1 0 0 10.7 .01
GS 0 0 1
GE 1
GN 0 0 0 0 15 .01
EX 0 1 10 0 1 0
EX 0 2 10 0 -1 0
FR 0 1 0 0 5 1
RP 0 181 1 1000 -90 0 1 1
RP 0 1 360 1000 65 0 1 1
EN
