CM Extended arm Vee (171'), 40 meters, #14 copper
CM L. B. Cebik, W4RNL
CE 
GW 1 40 -98 140 40 -1 0 40 3.20472440944882E-02
GW 2 1 -1 0 40 1 0 40 3.20472440944882E-02
GW 3 40 1 0 40 98 140 40 3.20472440944882E-02
GS 0 0 .3048
GE 1
GN 0 0 0 0 13 .005
EX 0 2 1 0 1 0
LD 5 1 1 40 5.8001E7
LD 5 2 1 1 5.8001E7
LD 5 3 1 40 5.8001E7
FR 0 1 0 0 7.15 1
RP 0 1 360 1000 58 0 1 1
FR 0 1 0 0 7.15 1
RP 0 181 1 1000 -90 90 1 1
EN

