CM Wire Yagi, 30 meters, #14 copper 
CM L. B. Cebik, W4RNL
CE 
GW 1 11 -23.3 0 34.4 23.3 0 34.4 2.67060367454068E-03
GW 2 11 -24.7 -14.1 34.4 24.7 -14.1 34.4 2.67060367454068E-03
GS 0 0 .3048
GE 0
EX 0 1 6 0 1 0
LD 5 1 1 11 5.8001E7
LD 5 2 1 11 5.8001E7
FR 0 1 0 0 10.125 1
RP 0 1 360 1000 90 0 1 1
FR 0 1 0 0 10.125 1
RP 0 181 1 1000 -90 90 1 1
EN

