CM 12-17 meter DE+Dir back-to-back
CM Use same feedpoint for 18.11 and 24.95 MHz
CM Use beta match for 17 meters
CE
GW 1,5,-2.9169,.93878,0.,-1.9812,.93878,0.,.00476
GW 2,5,-1.9812,.93878,0.,-.762,.93878,0.,.00635
GW 3,2,-.762,.93878,0.,-.3048,.93878,0.,.00794
GW 4,3,-.3048,.93878,0.,.3048,.93878,0.,.00953
GW 5,2,.3048,.93878,0.,.762,.93878,0.,.00794
GW 6,5,.762,.93878,0.,1.9812,.93878,0.,.00635
GW 7,5,1.9812,.93878,0.,2.91694,.93878,0.,.00476
GW 8,5,-3.0845,.10058,0.,-1.9812,.10058,0.,.00476
GW 9,5,-1.9812,.10058,0.,-.762,.10058,0.,.00635
GW 10,2,-.762,.10058,0.,-.3048,.10058,0.,.00794
GW 11,3,-.3048,.10058,0.,.3048,.10058,0.,.00953
GW 12,2,.3048,.10058,0.,.762,.10058,0.,.00794
GW 13,5,.762,.10058,0.,1.9812,.10058,0.,.00635
GW 14,5,1.9812,.10058,0.,3.08458,.10058,0.,.00476
GW 15,6,-3.9624,-1.1535,0.,-2.7432,-1.1535,0.,.00635
GW 16,6,-2.7432,-1.1535,0.,-1.0668,-1.1535,0.,.00794
GW 17,3,-1.0668,-1.1535,0.,-.4572,-1.1535,0.,.00953
GW 18,5,-.4572,-1.1535,0.,.4572,-1.1535,0.,.0111
GW 19,3,.4572,-1.1535,0.,1.0668,-1.1535,0.,.00953
GW 20,6,1.0668,-1.1535,0.,2.7432,-1.1535,0.,.00794
GW 21,6,2.7432,-1.1535,0.,3.9624,-1.1535,0.,.00635
GW 22,6,-4.2214,0.,0.,-2.7432,0.,0.,.00635
GW 23,6,-2.7432,0.,0.,-1.0668,0.,0.,.00794
GW 24,3,-1.0668,0.,0.,-.4572,0.,0.,.00953
GW 25,5,-.4572,0.,0.,.4572,0.,0.,.0111
GW 26,3,.4572,0.,0.,1.0668,0.,0.,.00953
GW 27,6,1.0668,0.,0.,2.7432,0.,0.,.00794
GW 28,6,2.7432,0.,0.,4.22148,0.,0.,.00635
GE 0
LD 5,1,0,0,2.5E+07,1.
LD 5,2,0,0,2.5E+07,1.
LD 5,3,0,0,2.5E+07,1.
LD 5,4,0,0,2.5E+07,1.
LD 5,5,0,0,2.5E+07,1.
LD 5,6,0,0,2.5E+07,1.
LD 5,7,0,0,2.5E+07,1.
LD 5,8,0,0,2.5E+07,1.
LD 5,9,0,0,2.5E+07,1.
LD 5,10,0,0,2.5E+07,1.
LD 5,11,0,0,2.5E+07,1.
LD 5,12,0,0,2.5E+07,1.
LD 5,13,0,0,2.5E+07,1.
LD 5,14,0,0,2.5E+07,1.
LD 5,15,0,0,2.5E+07,1.
LD 5,16,0,0,2.5E+07,1.
LD 5,17,0,0,2.5E+07,1.
LD 5,18,0,0,2.5E+07,1.
LD 5,19,0,0,2.5E+07,1.
LD 5,20,0,0,2.5E+07,1.
LD 5,21,0,0,2.5E+07,1.
LD 5,22,0,0,2.5E+07,1.
LD 5,23,0,0,2.5E+07,1.
LD 5,24,0,0,2.5E+07,1.
LD 5,25,0,0,2.5E+07,1.
LD 5,26,0,0,2.5E+07,1.
LD 5,27,0,0,2.5E+07,1.
LD 5,28,0,0,2.5E+07,1.
FR 0,1,0,0,18.11
GN -1
EX 0,25,3,0,1.414214,0.
RP 0,1,361,1000,90.,0.,0.,1.,0.
EN
