CM 20-15m 3-el interlaced Yagis
CM When changing to 21.15 MHz, change to
CM 15 meter driven element
CE
GW 1,21,-5.2832,0.,0.,5.2832,0.,0.,.00794
GW 2,21,-5.0038,3.2258,0.,5.0038,3.2258,0.,.00794
GW 3,21,-4.7752,6.985,0.,4.7752,6.985,0.,.00794
GW 4,15,-3.5052,3.4798,0.,3.5052,3.4798,0.,.00635
GW 5,15,-3.3147,5.969,0.,3.3147,5.969,0.,.00635
GW 6,15,-3.1877,8.4836,0.,3.1877,8.4836,0.,.00635
GE 0
FR 0,1,0,0,14.15
GN -1
EX 0,2,11,0,1.414214,0.
RP 0,1,361,1000,90.,0.,0.,1.,0.
EN
