CM 50 MHz high gain 3 el Yagi
CE
GW 1,21,-.9601,-1.4523,0.,-.9601,1.45237,0.,.00635
GW 2,21,0.,-1.3837,0.,0.,1.38379,0.,.00635
GW 3,21,1.01955,-1.3008,0.,1.01955,1.30088,0.,.00635
GE 0
LD 5,1,0,0,2.5E+07,1.
LD 5,2,0,0,2.5E+07,1.
LD 5,3,0,0,2.5E+07,1.
FR 0,1,0,0,51.
GN -1
EX 0,2,11,0,1.414214,0.
RP 0,1,361,1000,90.,0.,0.,1.,0.
EN
