CM 6M 3 el wide-band Yagi
CE
GW 1,31,-1.4835,-1.0334,5.82448,1.48357,-1.0334,5.82448,.00635
GW 2,31,-1.3729,0.,5.82448,1.37291,0.,5.82448,.00635
GW 3,31,-1.2206,.83206,5.82448,1.22064,.83206,5.82448,.00635
GE 0
LD 5,1,0,0,2.5E+07,1.
LD 5,2,0,0,2.5E+07,1.
LD 5,3,0,0,2.5E+07,1.
FR 0,1,0,0,52.
GN -1
EX 0,2,16,0,1.414214,0.
RP 0,1,361,1000,90.,0.,0.,1.,0.
EN
