CM 2el 5/4 10m 41.67' 4.39'; orig. ZL1LE
CM L. B. Cebik, W4RNL      
CE
GW 1,31,-6.3499,0.,10.668,6.34999,0.,10.668,.00103
GW 2,31,-6.3499,-1.338,10.668,6.34999,-1.338,10.668,.00103
GE 1
LD 4,2,16,16,10.,1150.
LD 4,1,16,16,10.,905.
LD 5,1,0,0,5.7471E+7,1.
LD 5,2,0,0,5.7471E+7,1.
FR 0,1,0,0,28.5
GN 2,0,0,0,13.,.005
EX 0,1,16,0,1.414214,0.
RP 0,1,361,1000,76.,0.,0.,1.,0.
EN
