CM fdsp 8x2 4.35 35' tl 300; translated to meters
CM L. B. Cebik, W4RNL      
CE
GW 1,41,-2.4384,0.,10.668,2.4384,0.,10.668,.000512
GW 2,2,2.4384,0.,10.668,2.4384,0.,10.6942,.000512
GW 3,41,2.4384,0.,10.6942,-2.4384,0.,10.6942,.000512
GW 4,2,-2.4384,0.,10.6942,-2.4384,0.,10.668,.000512
GW 5,41,2.4384,-1.3258,10.668,-2.4384,-1.3258,10.668,.000512
GW 6,2,-2.4384,-1.3258,10.668,-2.4384,-1.3258,10.6942,.000512
GW 7,41,-2.4384,-1.3258,10.6942,2.4384,-1.3258,10.6942,.000512
GW 8,2,2.4384,-1.3258,10.6942,2.4384,-1.3258,10.668,.000512
GE 1
LD 5,1,0,0,5.7471E+7,1.
LD 5,2,0,0,5.7471E+7,1.
LD 5,3,0,0,5.7471E+7,1.
LD 5,4,0,0,5.7471E+7,1.
LD 5,5,0,0,5.7471E+7,1.
LD 5,6,0,0,5.7471E+7,1.
LD 5,7,0,0,5.7471E+7,1.
LD 5,8,0,0,5.7471E+7,1.
FR 0,1,0,0,28.25
GN 2,0,0,0,13.,.005
EX 0,1,21,0,1.414214,0.
TL 1,21,5,21,300.,1.65735,0.,0.,0.,0.
RP 0,1,361,1000,76.,0.,0.,1.,0.
EN
