CM zl3mh 8.02x2-.625/3.46/tl=71, xlate to meters
CM L. B. Cebik, W4RNL  
CE
GW 1,51,-2.4475,0.,10.668,2.44754,0.,10.668,.00794
GW 2,51,2.44754,-1.0546,10.668,-2.4475,-1.0546,10.668,.00794
GE 1
LD 5,1,0,0,2.5E+07,1.
LD 5,2,0,0,2.5E+07,1.
FR 0,1,0,0,28.5
GN 2,0,0,0,13.,.005
EX 0,1,26,0,1.414214,0.
TL 1,26,2,26,71.,1.574042,0.,0.,0.,0.
RP 0,1,361,1000,76.,0.,0.,1.,0.
EN
